Version 4
SHEET 1 1704 740
WIRE 128 -144 -96 -144
WIRE 528 -144 128 -144
WIRE 896 -144 528 -144
WIRE 128 -112 128 -144
WIRE 1232 -48 704 -48
WIRE -224 -32 -384 -32
WIRE -16 -32 -144 -32
WIRE 128 -16 128 -32
WIRE 368 16 208 16
WIRE 576 16 432 16
WIRE 608 16 576 16
WIRE 704 16 704 -48
WIRE 784 48 752 48
WIRE 944 48 864 48
WIRE 944 64 944 48
WIRE 976 64 944 64
WIRE 1232 64 1232 -48
WIRE 1232 64 1200 64
WIRE -192 80 -208 80
WIRE -16 80 -16 -32
WIRE -16 80 -128 80
WIRE 608 80 608 16
WIRE 608 80 480 80
WIRE -96 128 -96 -144
WIRE -640 144 -736 144
WIRE -544 144 -640 144
WIRE -528 144 -544 144
WIRE -384 144 -384 -32
WIRE -384 144 -448 144
WIRE -352 144 -384 144
WIRE -208 144 -208 80
WIRE -208 144 -272 144
WIRE -112 144 -208 144
WIRE 528 144 528 -144
WIRE 976 144 800 144
WIRE 1264 144 1200 144
WIRE -736 160 -736 144
WIRE -16 160 -16 80
WIRE -16 160 -48 160
WIRE 0 160 -16 160
WIRE 96 160 0 160
WIRE 208 160 208 16
WIRE 208 160 176 160
WIRE 272 160 208 160
WIRE 400 160 352 160
WIRE 464 160 400 160
WIRE 480 160 480 80
WIRE 512 160 480 160
WIRE -384 176 -384 144
WIRE -112 176 -160 176
WIRE 608 176 608 80
WIRE 608 176 576 176
WIRE 752 176 752 48
WIRE 752 176 608 176
WIRE -544 192 -544 144
WIRE 400 192 400 160
WIRE 464 192 464 160
WIRE 512 192 464 192
WIRE -96 224 -96 192
WIRE 896 224 896 -144
WIRE 896 224 864 224
WIRE 976 224 896 224
WIRE 1264 224 1264 208
WIRE 1264 224 1200 224
WIRE 528 240 528 208
WIRE 1264 256 1264 224
WIRE -736 272 -736 240
WIRE -384 272 -384 240
WIRE -160 272 -160 176
WIRE 704 272 704 96
WIRE 800 272 800 144
WIRE 800 272 704 272
WIRE 1488 272 1424 272
WIRE 1536 272 1488 272
WIRE 400 288 400 256
WIRE 976 304 912 304
WIRE 1248 304 1200 304
WIRE -544 320 -544 272
WIRE 864 320 864 288
WIRE 1424 336 1424 272
WIRE 1376 352 1216 352
WIRE -160 384 -160 352
WIRE 704 384 704 272
WIRE 1216 384 1216 352
WIRE 1216 384 944 384
WIRE 912 400 912 304
WIRE 944 400 944 384
WIRE 944 400 912 400
WIRE 1024 400 944 400
WIRE 1248 400 1248 304
WIRE 1248 400 1136 400
WIRE 1376 400 1248 400
WIRE 1424 448 1424 416
WIRE 704 496 704 464
WIRE 1024 512 1024 480
WIRE 1040 512 1024 512
WIRE 1136 512 1136 480
WIRE 1136 512 1104 512
WIRE 1024 528 1024 512
WIRE 1024 528 944 528
WIRE 1136 528 1136 512
WIRE 1184 528 1136 528
WIRE 1232 528 1184 528
WIRE 1424 544 1360 544
WIRE 1472 544 1424 544
WIRE 1360 608 1360 544
WIRE 944 624 944 528
WIRE 1312 624 944 624
WIRE 1232 672 1232 528
WIRE 1312 672 1232 672
WIRE 1360 720 1360 688
FLAG -96 224 0
FLAG -736 272 0
FLAG -640 144 input
FLAG 128 -16 0
FLAG -384 272 0
FLAG 0 160 out1
FLAG 528 240 0
FLAG -160 384 0
FLAG 400 288 0
FLAG 1264 256 0
FLAG 864 320 0
FLAG 704 496 0
FLAG 944 528 out3p
FLAG 1184 528 out3n
FLAG 576 16 out2
FLAG 1360 720 0
FLAG 1424 544 out_diff_filter
FLAG -544 320 0
FLAG 1424 448 0
FLAG 1488 272 out_diff
SYMBOL voltage 128 -128 R0
WINDOW 123 0 0 Left 2
WINDOW 39 0 0 Left 2
SYMATTR InstName V1
SYMATTR Value 3.3
SYMBOL res -128 -48 R90
WINDOW 0 0 56 VBottom 2
WINDOW 3 32 56 VTop 2
SYMATTR InstName R1
SYMATTR Value 300
SYMBOL res -432 128 R90
WINDOW 0 0 56 VBottom 2
WINDOW 3 32 56 VTop 2
SYMATTR InstName R3
SYMATTR Value 300
SYMBOL voltage -736 144 R0
WINDOW 123 24 124 Left 2
WINDOW 39 24 152 Left 2
WINDOW 3 24 44 Left 2
SYMATTR Value2 AC 1
SYMATTR SpiceLine Rser=0
SYMATTR Value SINE(0 1 10meg)
SYMATTR InstName V2
SYMBOL voltage -160 256 R0
WINDOW 123 0 0 Left 2
WINDOW 39 0 0 Left 2
SYMATTR InstName V3
SYMATTR Value 0.75
SYMBOL Opamps\\LTC6252 -80 160 R0
SYMATTR InstName U1
SYMBOL res -256 128 R90
WINDOW 0 0 56 VBottom 2
WINDOW 3 32 56 VTop 2
SYMATTR InstName R2
SYMATTR Value 910
SYMBOL cap -128 64 R90
WINDOW 0 0 32 VBottom 2
WINDOW 3 32 32 VTop 2
SYMATTR InstName C1
SYMATTR Value 5p
SYMBOL cap -400 176 R0
SYMATTR InstName C2
SYMATTR Value 40p
SYMBOL Opamps\\LTC6252 544 176 R0
SYMATTR InstName U2
SYMBOL res 368 144 R90
WINDOW 0 0 56 VBottom 2
WINDOW 3 32 56 VTop 2
SYMATTR InstName R5
SYMATTR Value 430
SYMBOL cap 432 0 R90
WINDOW 0 0 32 VBottom 2
WINDOW 3 32 32 VTop 2
SYMATTR InstName C3
SYMATTR Value 20p
SYMBOL res 192 144 R90
WINDOW 0 0 56 VBottom 2
WINDOW 3 32 56 VTop 2
SYMATTR InstName R4
SYMATTR Value 2.4k
SYMBOL cap 384 192 R0
SYMATTR InstName C4
SYMATTR Value 5p
SYMBOL cap 1248 144 R0
SYMATTR InstName C5
SYMATTR Value 100n
SYMBOL res 880 32 R90
WINDOW 0 0 56 VBottom 2
WINDOW 3 32 56 VTop 2
SYMATTR InstName R6
SYMATTR Value 560
SYMBOL res 688 0 R0
SYMATTR InstName R7
SYMATTR Value 560
SYMBOL res 1008 384 R0
SYMATTR InstName R8
SYMATTR Value 50
SYMBOL res 1120 384 R0
SYMATTR InstName R9
SYMATTR Value 50
SYMBOL cap 848 224 R0
SYMATTR InstName C7
SYMATTR Value 1µ
SYMBOL voltage 704 368 R0
WINDOW 123 0 0 Left 2
WINDOW 39 0 0 Left 2
SYMATTR InstName V4
SYMATTR Value 1.6
SYMBOL FilterProducts\\LT6600-15 1088 192 R0
SYMATTR InstName U4
SYMBOL e 1360 592 R0
SYMATTR InstName E1
SYMATTR Value 1
SYMBOL res -560 176 R0
SYMATTR InstName R11
SYMATTR Value 60
SYMBOL cap 1104 496 R90
WINDOW 0 0 32 VBottom 2
WINDOW 3 32 32 VTop 2
SYMATTR InstName C6
SYMATTR Value 51p
SYMBOL e 1424 320 R0
SYMATTR InstName E2
SYMATTR Value 1
TEXT -736 352 Left 2 !.tran 1u
TEXT -328 208 Left 2 ;20MHz damp=1
TEXT -712 392 Left 2 !;ac dec 100 100k 100meg
TEXT 208 216 Left 2 ;16MHz Q=0.707
