Version 4
SHEET 1 1704 740
WIRE 64 -144 -96 -144
WIRE 128 -144 64 -144
WIRE 528 -144 128 -144
WIRE 912 -144 528 -144
WIRE 1456 -144 912 -144
WIRE 128 -112 128 -144
WIRE -224 -32 -384 -32
WIRE -16 -32 -144 -32
WIRE 128 -16 128 -32
WIRE 368 16 224 16
WIRE 576 16 432 16
WIRE 608 16 576 16
WIRE 1552 32 1408 32
WIRE 768 64 720 64
WIRE 976 64 848 64
WIRE 1264 64 1200 64
WIRE 1408 64 1408 32
WIRE 1408 64 1344 64
WIRE -192 80 -208 80
WIRE -16 80 -16 -32
WIRE -16 80 -128 80
WIRE 608 80 608 16
WIRE 608 80 480 80
WIRE 1456 96 1456 -144
WIRE 528 112 528 -144
WIRE 1408 112 1408 64
WIRE 1440 112 1408 112
WIRE -96 128 -96 -144
WIRE 480 128 480 80
WIRE 512 128 480 128
WIRE 1552 128 1552 32
WIRE 1552 128 1504 128
WIRE -784 144 -800 144
WIRE -544 144 -784 144
WIRE -496 144 -544 144
WIRE -384 144 -384 -32
WIRE -384 144 -416 144
WIRE -352 144 -384 144
WIRE -208 144 -208 80
WIRE -208 144 -272 144
WIRE -112 144 -208 144
WIRE 608 144 608 80
WIRE 608 144 576 144
WIRE 720 144 720 64
WIRE 720 144 608 144
WIRE 976 144 768 144
WIRE 1264 144 1200 144
WIRE 1440 144 1264 144
WIRE -16 160 -16 80
WIRE -16 160 -48 160
WIRE 0 160 -16 160
WIRE 96 160 0 160
WIRE 224 160 224 16
WIRE 224 160 176 160
WIRE 272 160 224 160
WIRE 400 160 352 160
WIRE 512 160 400 160
WIRE 1264 160 1264 144
WIRE -384 176 -384 144
WIRE -112 176 -160 176
WIRE -800 192 -800 144
WIRE 400 192 400 160
WIRE 1456 192 1456 160
WIRE -544 208 -544 144
WIRE -96 224 -96 192
WIRE 912 224 912 -144
WIRE 976 224 912 224
WIRE 1264 224 1200 224
WIRE 64 240 64 -144
WIRE 528 240 528 176
WIRE 768 240 768 144
WIRE 1264 256 1264 224
WIRE 1408 272 1360 272
WIRE 1520 272 1408 272
WIRE 400 288 400 256
WIRE 976 304 944 304
WIRE 1232 304 1200 304
WIRE -800 336 -800 272
WIRE -544 336 -544 288
WIRE -384 336 -384 240
WIRE 768 352 768 320
WIRE 1360 352 1360 272
WIRE 944 368 944 304
WIRE 1312 368 944 368
WIRE -160 384 -160 176
WIRE 64 384 64 320
WIRE 64 384 -160 384
WIRE 64 416 64 384
WIRE 1232 416 1232 304
WIRE 1312 416 1232 416
WIRE 944 432 944 368
WIRE 1232 432 1232 416
WIRE 1360 480 1360 432
WIRE 944 528 944 512
WIRE 1040 528 944 528
WIRE 1232 528 1232 512
WIRE 1232 528 1104 528
WIRE 64 544 64 496
WIRE 1424 544 1360 544
WIRE 1472 544 1424 544
WIRE 944 576 944 528
WIRE 1232 576 1232 528
WIRE 1360 608 1360 544
WIRE 944 624 944 576
WIRE 1312 624 944 624
WIRE 1232 672 1232 576
WIRE 1312 672 1232 672
WIRE 1360 720 1360 688
FLAG -96 224 0
FLAG 128 -16 0
FLAG -384 336 0
FLAG 0 160 out1
FLAG 528 240 0
FLAG 400 288 0
FLAG 1264 256 0
FLAG 944 576 out3p
FLAG 1232 576 out3n
FLAG 576 16 out2
FLAG 1360 720 0
FLAG 1424 544 out_diff_filter
FLAG -544 336 0
FLAG 1360 480 0
FLAG 1408 272 out_diff
FLAG 768 352 0
FLAG 1456 192 0
FLAG -800 336 0
FLAG 64 544 0
FLAG -784 144 Vsource
FLAG -544 144 Vin
SYMBOL voltage 128 -128 R0
WINDOW 123 0 0 Left 2
WINDOW 39 0 0 Left 2
SYMATTR InstName V1
SYMATTR Value 3.3
SYMBOL res -128 -48 R90
WINDOW 0 0 56 VBottom 2
WINDOW 3 32 56 VTop 2
SYMATTR InstName R1
SYMATTR Value 300
SYMBOL res -400 128 R90
WINDOW 0 0 56 VBottom 2
WINDOW 3 32 56 VTop 2
SYMATTR InstName R3
SYMATTR Value 275
SYMBOL voltage -800 176 R0
WINDOW 123 24 124 Left 2
WINDOW 39 24 152 Left 2
WINDOW 3 24 44 Left 2
SYMATTR Value2 AC 2
SYMATTR SpiceLine Rser=50
SYMATTR Value SINE(0 1 1meg)
SYMATTR InstName V2
SYMBOL Opamps\\LTC6252 -80 160 R0
SYMATTR InstName U1
SYMBOL res -256 128 R90
WINDOW 0 0 56 VBottom 2
WINDOW 3 32 56 VTop 2
SYMATTR InstName R2
SYMATTR Value 910
SYMBOL cap -128 64 R90
WINDOW 0 0 32 VBottom 2
WINDOW 3 32 32 VTop 2
SYMATTR InstName C1
SYMATTR Value 5p
SYMBOL cap -400 176 R0
SYMATTR InstName C2
SYMATTR Value 40p
SYMBOL Opamps\\LTC6252 544 144 R0
SYMATTR InstName U2
SYMBOL res 368 144 R90
WINDOW 0 0 56 VBottom 2
WINDOW 3 32 56 VTop 2
SYMATTR InstName R5
SYMATTR Value 430
SYMBOL cap 432 0 R90
WINDOW 0 0 32 VBottom 2
WINDOW 3 32 32 VTop 2
SYMATTR InstName C3
SYMATTR Value 20p
SYMBOL res 192 144 R90
WINDOW 0 0 56 VBottom 2
WINDOW 3 32 56 VTop 2
SYMATTR InstName R4
SYMATTR Value 2.4k
SYMBOL cap 384 192 R0
SYMATTR InstName C4
SYMATTR Value 5p
SYMBOL cap 1248 160 R0
SYMATTR InstName C5
SYMATTR Value 100n
SYMBOL res 864 48 R90
WINDOW 0 0 56 VBottom 2
WINDOW 3 32 56 VTop 2
SYMATTR InstName R6
SYMATTR Value 560
SYMBOL res 928 416 R0
SYMATTR InstName R8
SYMATTR Value 40
SYMBOL res 1216 416 R0
SYMATTR InstName R9
SYMATTR Value 40
SYMBOL FilterProducts\\LT6600-15 1088 192 R0
SYMATTR InstName U4
SYMBOL e 1360 592 R0
SYMATTR InstName E1
SYMATTR Value 1
SYMBOL res -560 192 R0
SYMATTR InstName R11
SYMATTR Value 50
SYMBOL cap 1104 512 R90
WINDOW 0 0 32 VBottom 2
WINDOW 3 32 32 VTop 2
SYMATTR InstName C6
SYMATTR Value 51p
SYMBOL e 1360 336 R0
SYMATTR InstName E2
SYMATTR Value 1
SYMBOL voltage 768 224 R0
WINDOW 123 0 0 Left 2
WINDOW 39 0 0 Left 2
SYMATTR InstName V5
SYMATTR Value 1.5
SYMBOL Opamps\\LTC6252 1472 128 R0
SYMATTR InstName U3
SYMBOL res 1360 48 R90
WINDOW 0 0 56 VBottom 2
WINDOW 3 32 56 VTop 2
SYMATTR InstName R13
SYMATTR Value 560
SYMBOL res 48 224 R0
SYMATTR InstName R10
SYMATTR Value 3k
SYMBOL res 48 400 R0
SYMATTR InstName R12
SYMATTR Value 1k
TEXT -784 368 Left 2 !.ac dec 100 100k 50meg
TEXT -328 208 Left 2 ;20MHz damp=1
TEXT 208 216 Left 2 ;16MHz Q=0.707
