Version 4
SHEET 1 1804 1236
WIRE -224 -160 -320 -160
WIRE -128 -160 -224 -160
WIRE 64 -160 -128 -160
WIRE 496 -160 144 -160
WIRE -320 -144 -320 -160
WIRE -128 -112 -128 -160
WIRE -320 -32 -320 -64
WIRE -128 16 -128 -32
WIRE 64 96 0 96
WIRE 208 96 144 96
WIRE 496 96 496 -160
WIRE 496 96 432 96
WIRE 0 144 0 96
WIRE 464 144 176 144
WIRE 176 176 176 144
WIRE 208 176 176 176
WIRE 464 176 464 144
WIRE 464 176 432 176
WIRE 208 256 64 256
WIRE 464 256 464 240
WIRE 464 256 432 256
WIRE 464 288 464 256
WIRE 208 336 160 336
WIRE 480 336 432 336
WIRE 160 352 160 336
WIRE 480 352 480 336
WIRE 432 400 240 400
WIRE 160 464 160 432
WIRE 240 464 240 400
WIRE 240 464 160 464
WIRE 288 464 240 464
WIRE 384 464 352 464
WIRE 480 464 480 432
WIRE 480 464 384 464
WIRE 16 480 -80 480
WIRE 64 480 64 256
WIRE 64 480 16 480
WIRE 384 496 384 464
WIRE 384 496 160 496
WIRE 432 496 432 400
WIRE 480 496 432 496
WIRE -80 512 -80 480
WIRE 160 560 160 496
WIRE 208 560 160 560
WIRE 480 560 480 496
WIRE 480 560 432 560
WIRE -80 608 -80 592
WIRE 496 608 144 608
WIRE 144 640 144 608
WIRE 208 640 144 640
WIRE 496 640 496 608
WIRE 496 640 432 640
WIRE 64 720 64 480
WIRE 208 720 64 720
WIRE 496 720 496 704
WIRE 496 720 432 720
WIRE 496 752 496 720
WIRE 720 768 656 768
WIRE 768 768 720 768
WIRE 208 800 144 800
WIRE 480 800 432 800
WIRE 656 832 656 768
WIRE 608 848 448 848
WIRE 448 880 448 848
WIRE 448 880 176 880
WIRE 144 896 144 800
WIRE 176 896 176 880
WIRE 176 896 144 896
WIRE 256 896 176 896
WIRE 480 896 480 800
WIRE 480 896 368 896
WIRE 608 896 480 896
WIRE 656 944 656 912
WIRE 256 1008 256 976
WIRE 272 1008 256 1008
WIRE 368 1008 368 976
WIRE 368 1008 336 1008
WIRE 256 1024 256 1008
WIRE 256 1024 176 1024
WIRE 368 1024 368 1008
WIRE 416 1024 368 1024
WIRE 464 1024 416 1024
WIRE 656 1040 592 1040
WIRE 704 1040 656 1040
WIRE 592 1104 592 1040
WIRE 176 1120 176 1024
WIRE 544 1120 176 1120
WIRE 464 1168 464 1024
WIRE 544 1168 464 1168
WIRE 592 1216 592 1184
FLAG -320 -32 0
FLAG -224 -160 input
FLAG -80 608 0
FLAG 496 752 0
FLAG 176 1024 out3p
FLAG 416 1024 out3n
FLAG 592 1216 0
FLAG 656 1040 out_diff_filter
FLAG -128 16 0
FLAG 656 944 0
FLAG 720 768 out_diff
FLAG 0 144 0
FLAG 464 288 0
FLAG 16 480 vcc
SYMBOL voltage -80 496 R0
WINDOW 123 0 0 Left 2
WINDOW 39 0 0 Left 2
SYMATTR InstName V1
SYMATTR Value 3.3
SYMBOL res 160 -176 R90
WINDOW 0 0 56 VBottom 2
WINDOW 3 32 56 VTop 2
SYMATTR InstName R3
SYMATTR Value 530
SYMBOL voltage -320 -160 R0
WINDOW 123 24 124 Left 2
WINDOW 39 24 152 Left 2
WINDOW 3 24 44 Left 2
SYMATTR Value2 AC 1
SYMATTR SpiceLine Rser=0
SYMATTR Value SINE(0 1 20meg)
SYMATTR InstName V2
SYMBOL cap 480 640 R0
SYMATTR InstName C5
SYMATTR Value 100n
SYMBOL res 240 880 R0
SYMATTR InstName R8
SYMATTR Value 40
SYMBOL res 352 880 R0
SYMATTR InstName R9
SYMATTR Value 40
SYMBOL FilterProducts\\LT6600-15 320 688 R0
SYMATTR InstName U4
SYMBOL e 592 1088 R0
SYMATTR InstName E1
SYMATTR Value 1
SYMBOL res -144 -128 R0
SYMATTR InstName R11
SYMATTR Value 60
SYMBOL cap 336 992 R90
WINDOW 0 0 32 VBottom 2
WINDOW 3 32 32 VTop 2
SYMATTR InstName C6
SYMATTR Value 150p
SYMBOL e 656 816 R0
SYMATTR InstName E2
SYMATTR Value 1
SYMBOL FilterProducts\\LT6600-15 320 224 R0
SYMATTR InstName U1
SYMBOL res 160 80 R90
WINDOW 0 0 56 VBottom 2
WINDOW 3 32 56 VTop 2
SYMATTR InstName R1
SYMATTR Value 530
SYMBOL cap 448 176 R0
SYMATTR InstName C1
SYMATTR Value 100n
SYMBOL res 464 336 R0
SYMATTR InstName R2
SYMATTR Value 560
SYMBOL res 144 336 R0
SYMATTR InstName R4
SYMATTR Value 560
SYMBOL cap 352 448 R90
WINDOW 0 0 32 VBottom 2
WINDOW 3 32 32 VTop 2
SYMATTR InstName C2
SYMATTR Value 51p
TEXT -320 48 Left 2 !;tran 10u
TEXT -296 88 Left 2 !.ac dec 100 1 1g
